[TITLE]
Generated by build_inp_from_csv.py
[OPTIONS]
 UNITS               GPM
 HEADLOSS            D-W
 SPECIFIC GRAVITY    1.0
 VISCOSITY           1.0
 TRIALS              40
 ACCURACY            0.001
 CHECKFREQ           2
 MAXCHECK            10
 DAMPLIMIT           0.0
[TIMES]
 DURATION            1:00
 HYDRAULIC TIMESTEP  0:03
 QUALITY TIMESTEP    0:03
 PATTERN TIMESTEP    0:03
 PATTERN START       0:00
 REPORT TIMESTEP     0:03
 REPORT START        0:00
 START CLOCKTIME     0:00
 STATISTIC           NONE
[PATTERNS]
;ID         24 hourly multipliers (constant=1)
StressTest  1 1 1 1 1 1 1 1 1 1 1 1 1 1 1 1 1 1 1 1 1 1 1 1
[JUNCTIONS]
;ID           Elev(ft)   Demand(GPM)  Pattern
J_RES1_T1        -65.00       0.0000  DailyUse
J_T1_M1         -104.00       0.0000  DailyUse
J_BP1           -130.00       0.0000  DailyUse
J_BP1_DIS_M1    -130.00       0.0000  DailyUse
J_M1_SNT1_160    -65.00       0.0000  DailyUse
J_SNT1_V1_IN_160   -65.00       0.0000  DailyUse
V1               -81.30       0.0000  DailyUse
J_SNT1_V1_OUT_160_360   -89.40       0.0000  DailyUse
J_SNT1_V2_IN_360   -97.50       0.0000  DailyUse
V2              -110.50       0.0000  DailyUse
J_SNT1_V2_OUT_360_445   -81.30       0.0000  DailyUse
J_TEE_SNT1_445_RUN_IN   -81.30       0.0000  DailyUse
J_TEE_SNT1_445_CNT1_stub  -125.90       0.0000  DailyUse
J_CNT1_Stub_CNT39_15  -125.90       0.0000  DailyUse
J_TEE_SNT1_445_525   -81.30       0.0000  DailyUse
J_TEE_SNT1_525_RUN_IN   -81.30       0.0000  DailyUse
J_TEE_SNT1_525_CNT2_Stub  -125.90       0.0000  DailyUse
J_CNT2_Stub_CNT2_40  -125.90       0.0000  DailyUse
J_TEE_SNT1_525_580   -73.10       0.0000  DailyUse
J_TEE_SNT1_580_RUN_IN   -73.10       0.0000  DailyUse
J_TEE_SNT1_580_CNT3_Stub   -91.00       0.0000  DailyUse
J_CNT3_Stub_CNT3_40   -91.00       0.0000  DailyUse
J_TEE_SNT1_580_635   -81.30       0.0000  DailyUse
J_TEE_SNT1_635_RUN_IN   -81.30       0.0000  DailyUse
J_TEE_SNT1_635_CNT4_Stub   -62.40       0.0000  DailyUse
J_CNT4_Stub_CNT4_40   -62.40       0.0000  DailyUse
J_TEE_SNT1_635_690   -81.30       0.0000  DailyUse
J_SNT1_BEND_IN_690   -85.80       0.0000  DailyUse
J_SNT1_BEND_IN_BEND_OUT_690   -85.80       0.0000  DailyUse
J_SNT1_BEND_OUT_680_700   -81.30       0.0000  DailyUse
J_TEE_SNT1_700_RUN_IN  -113.80       0.0000  DailyUse
J_TEE_SNT1_700_CNT5_STUB  -239.90       0.0000  DailyUse
J_CNT5_Stub_CNT5_15  -239.90       0.0000  DailyUse
J_TEE_SNT1_700_740  -239.90       0.0000  DailyUse
J_TEE_SNT1_740_RUN_IN  -176.50       0.0000  DailyUse
J_TEE_SNT1_740_CNT6_Stub  -239.90       0.0000  DailyUse
J_CNT6_Stub_CNT6_105  -239.90       0.0000  DailyUse
J_TEE_SNT1_740_795  -239.90       0.0000  DailyUse
J_TEE_SNT1_795_RUN_IN  -239.90       0.0000  DailyUse
J_TEE_SNT1_795_CNT7_Stub  -304.90       0.0000  DailyUse
J_CNT7_Stub_CNT7_40  -304.90       0.0000  DailyUse
J_TEE_SNT1_795_875  -304.90       0.0000  DailyUse
J_SNT1_V3_IN_875  -329.20       0.0000  DailyUse
V3              -341.30       0.0000  DailyUse
J_TEE_SNT1_V3OUT_875_920  -361.80       0.0000  DailyUse
J_TEE_SNT1_920_RUN_IN  -361.80       0.0000  DailyUse
J_TEE_SNT1_920_CNT8_Stub  -361.80       0.0000  DailyUse
J_CNT8_Stub_CNT8_40  -361.80       0.0000  DailyUse
J_TEE_SNT1_920_1000  -367.30       0.0000  DailyUse
J_TEE_SNT1_1000_RUN_IN  -367.30       0.0000  DailyUse
J_TEE_SNT1_1000_CNT9_Stub   367.30       0.0000  DailyUse
J_CNT9_Stub_CNT9_150   367.30       0.0000  DailyUse
J_TEE_SNT1_1000_1056  -422.50       0.0000  DailyUse
J_TEE_SNT1_1056_RUN_IN  -422.50       0.0000  DailyUse
J_TEE_SNT1_1056_CNT10_Stub  -422.50       0.0000  DailyUse
J_CNT10_Stub_CNT10_150  -422.50       0.0000  DailyUse
J_TEE_SNT1_1056_1076  -464.50       0.0000  DailyUse
J_TEE_SNT1_1076_RUN_IN  -464.50       0.0000  DailyUse
J_TEE_SNT1_1076_CNT11_Stub  -464.50       0.0000  DailyUse
J_CNT11_Stub_CNT11_150  -464.50       0.0000  DailyUse
J_TEE_SNT1_1076_1132  -471.30       0.0000  DailyUse
J_TEE_SNT1_1132_RUN_IN  -471.30       0.0000  DailyUse
J_TEE_SNT1_1132_CNT12_Stub  -471.30       0.0000  DailyUse
J_CNT12_Stub_CNT12_150  -471.30       0.0000  DailyUse
J_TEE_SNT1_1132_1152  -479.70       0.0000  DailyUse
J_TEE_SNT1_1152_RUN_IN  -479.70       0.0000  DailyUse
J_TEE_SNT1_1152_CNT13_Stub  -479.70       0.0000  DailyUse
J_CNT13_Stub_CNT13_150  -479.70       0.0000  DailyUse
J_TEE_SNT1_1152_1208  -497.30       0.0000  DailyUse
J_TEE_SNT1_1208_RUN_IN  -497.30       0.0000  DailyUse
J_TEE_SNT1_1208_CNT14_Stub  -497.30       0.0000  DailyUse
J_CNT14_Stub_CNT14_150  -497.30       0.0000  DailyUse
J_TEE_SNT1_1208_1264  -520.00       0.0000  DailyUse
J_TEE_SNT1_1264_RUN_IN  -520.00       0.0000  DailyUse
J_TEE_SNT1_1264_CNT15_Stub  -520.00       0.0000  DailyUse
J_CNT15_Stub_CNT15_150  -520.00       0.0000  DailyUse
J_TEE_SNT1_1264_1284  -576.90       0.0000  DailyUse
J_TEE_SNT1_1284_RUN_IN  -576.90       0.0000  DailyUse
J_TEE_SNT1_1284_CNT16_Stub  -576.90       0.0000  DailyUse
J_CNT16_Stub_CNT16_150  -576.90       0.0000  DailyUse
J_TEE_SNT1_1284_1340  -585.00       0.0000  DailyUse
J_TEE_SNT1_1340_RUN_IN  -585.00       0.0000  DailyUse
J_TEE_SNT1_1340_CNT17_Stub  -585.00       0.0000  DailyUse
J_CNT17_Stub_CNT17_150  -585.00       0.0000  DailyUse
J_TEE_SNT1_1340_1355  -617.50       0.0000  DailyUse
J_TEE_SNT1_1355_RUN_IN  -617.50       0.0000  DailyUse
J_TEE_SNT1_1355_CNT18_Stub  -617.50       0.0000  DailyUse
J_CNT18_Stub_CNT18_150  -617.50       0.0000  DailyUse
J_TEE_SNT1_1355_1370  -625.60       0.0000  DailyUse
J_TEE_SNT1_1370_RUN_IN  -625.60       0.0000  DailyUse
J_TEE_SNT1_1370_CNT19_Stub  -625.60       0.0000  DailyUse
J_CNT19_Stub_CNT19_150  -625.60       0.0000  DailyUse
J_SNT1_1370_1400  -670.50       0.0000  DailyUse
J_TEE_SNT1_1400_RUN_IN  -670.50       0.0000  DailyUse
J_TEE_SNT1_1400_CNT20_Stub  -670.50       0.0000  DailyUse
J_CNT20_Stub_CNT20_150  -670.50       0.0000  DailyUse
J_TEE_SNT1_1400_1415  -743.00       0.0000  DailyUse
J_TEE_SNT1_1415_RUN_IN  -743.00       0.0000  DailyUse
J_TEE_SNT1_1400_CNT21_Stub  -743.00       0.0000  DailyUse
J_CNT21_Stub_CNT21_150  -743.00       0.0000  DailyUse
J_TEE_SNT1_SNT1_1415_1430  -800.50       0.0000  DailyUse
J_TEE_SNT1_1430_RUN_IN  -800.50       0.0000  DailyUse
J_TEE_SNT1_1430_CNT21_Stub  -800.50       0.0000  DailyUse
J_CNT22_Stub_CNT22_150  -800.50       0.0000  DailyUse
J_TEE_SNT1_1430_1445  -804.40       0.0000  DailyUse
J_TEE_SNT1_1445_RUN_IN  -804.40       0.0000  DailyUse
J_TEE_SNT1_1445_CNT23_Stub  -804.40       0.0000  DailyUse
J_CNT23_Stub_CNT23_150  -804.40       0.0000  DailyUse
J_TEE_SNT1_1445_1460  -833.00       0.0000  DailyUse
J_TEE_SNT1_1460_RUN_IN  -833.00       0.0000  DailyUse
J_TEE_SNT1_1460_CNT24_Stub  -833.00       0.0000  DailyUse
J_CNT24_Stub_CNT24_150  -833.00       0.0000  DailyUse
J_TEE_SNT1_1460_1475  -841.80       0.0000  DailyUse
J_TEE_SNT1_1475_RUN_IN  -841.80       0.0000  DailyUse
J_TEE_SNT1_1475_CNT25_Stub  -841.80       0.0000  DailyUse
J_CNT25_Stub_CNT25_150  -841.80       0.0000  DailyUse
J_TEE_SNT1_1475_1570  -858.00       0.0000  DailyUse
J_TEE_SNT1_1570_RUN_IN  -858.00       0.0000  DailyUse
J_TEE_SNT1_1570_CNT26_Stub  -858.00       0.0000  DailyUse
J_CNT26_Stub_CNT26_150  -858.00       0.0000  DailyUse
J_TEE_SNT1_1570_1585  -879.10       0.0000  DailyUse
J_TEE_SNT1_1585_RUN_IN  -879.10       0.0000  DailyUse
J_TEE_SNT1_1585_CNT27_Stub  -879.10       0.0000  DailyUse
J_CNT27_Stub_CNT27_150  -879.10       0.0000  DailyUse
J_TEE_SNT1_1585_1680  -914.20       0.0000  DailyUse
J_TEE_SNT1_1680_RUN_IN  -914.20       0.0000  DailyUse
J_TEE_SNT1_1680_CNT28_Stub  -914.20       0.0000  DailyUse
J__CNT28_Stub_CNT28_150  -914.20       0.0000  DailyUse
J_TEE_SNT1_1680_1695  -920.60       0.0000  DailyUse
J_TEE_SNT1_1695_RUN_IN  -920.60       0.0000  DailyUse
J_TEE_SNT1_1695_CNT28_Stub  -920.60       0.0000  DailyUse
J_CNT29_Stub_CNT29_Stub_150  -920.60       0.0000  DailyUse
J_TEE_SNT1_1695_1790  -973.50       0.0000  DailyUse
J_TEE_SNT1_1790_RUN_IN  -973.50       0.0000  DailyUse
J_TEE_SNT1_1790_CNT30_Stub  -973.50       0.0000  DailyUse
J_CNT30_Stub_CNT30_150  -973.50       0.0000  DailyUse
J_TEE_SNT1_1790_1805  -983.80       0.0000  DailyUse
J_TEE_SNT1_1805_RUN_IN  -983.80       0.0000  DailyUse
J_TEE_SNT1_1790_CNT31_Stub  -983.80       0.0000  DailyUse
J_CNT31_Stub_CNT31_150  -983.80       0.0000  DailyUse
J_TEE_SNT1_1805_1900 -1032.50       0.0000  DailyUse
J_TEE_SNT1_1900_RUN_IN -1032.50       0.0000  DailyUse
J_TEE_SNT1_1900_CNT32_Stub -1032.50       0.0000  DailyUse
J_CNT33_Stub_CNT32_150 -1032.50       0.0000  DailyUse
J_TEE_SNT1_1900_1915 -1083.90       0.0000  DailyUse
J_TEE_SNT1_1915_RUN_IN -1083.90       0.0000  DailyUse
J_TEE_SNT1_1915_CNT33_Stub -1083.90       0.0000  DailyUse
J_CNT33_Stub_CNT33_150 -1083.90       0.0000  DailyUse
J_TEE_SNT1_1915_2065 -1160.70       0.0000  DailyUse
J_TEE_SNT1_2065_RUN_IN -1160.70       0.0000  DailyUse
J_TEE_SNT1_2065_CNT34_Stub -1160.70       0.0000  DailyUse
J_TEE_CNT34_Stub_CNT34_150 -1160.70       0.0000  DailyUse
J_TEE_SNT1_2065_2080 -1170.00       0.0000  DailyUse
J_TEE_SNT1_2080_RUN_IN -1170.00       0.0000  DailyUse
J_TEE_SNT1_2080_CNT35_Stub -1170.00       0.0000  DailyUse
J_CNT35_Stub_CNT35_150 -1170.00       0.0000  DailyUse
J_TEE_SNT1_2080_2175 -1170.00       0.0000  DailyUse
J_TEE_SNT1_2175_RUN_IN -1170.00       0.0000  DailyUse
J_TEE_SNT1_2175_CNT36_Stub   -69.20       0.0000  DailyUse
J_CNT36_Stub_CNT35_150   -69.20       0.0000  DailyUse
J_TEE_SNT1_2175_2255  -178.80       0.0000  DailyUse
J_SNT1_V4_IN_2255  -178.80       0.0000  DailyUse
V4              -199.20       0.0000  DailyUse
J_M1_SNT2_Stub_55  -199.20       0.0000  DailyUse
J_TEE_SNT2_Stub_55  -199.20       0.0000  DailyUse
J_TEE_SNT2_55_RUN_IN  -199.20       0.0000  DailyUse
J_TEE_SNT2_55_CNT37_Stub  -199.20       0.0000  DailyUse
J_CNT37_Stub_CNT37_90  -231.70       0.0000  DailyUse
J_CNT37_90_V5_STUB  -231.70       0.0000  DailyUse
V5              -231.70       0.0000  DailyUse
J_SNT2_55_105   -243.80       0.0000  DailyUse
J_SNT2_105_RUN_IN  -243.80       0.0000  DailyUse
J_TEE_SNT2_105_CNT38_Stub  -243.80       0.0000  DailyUse
J_CNT38_Stub_CNT38_90  -243.80       0.0000  DailyUse
J_CNT38_105_V6_STUB  -422.50       0.0000  DailyUse
V6              -422.50       0.0000  DailyUse
J_TEE_SNT2_105_185  -355.40       0.0000  DailyUse
J_SNT2_185_RUN_IN  -355.40       0.0000  DailyUse
J_TEE_SNT2_185_V7_STUB  -367.70       0.0000  DailyUse
V7              -367.70       0.0000  DailyUse
J_SNT2_V7_OUT_185_210  -367.70       0.0000  DailyUse
J_SNT2_V8_IN_210  -422.50       0.0000  DailyUse
V8              -422.50       0.0000  DailyUse
J_TEE_SNT2_V8_OUT_210_211  -422.50       0.0000  DailyUse
J_TEE_SNT2_211_RUN_IN  -420.40       0.0000  DailyUse
J_TEE_SNT2_211_CNT39_Stub  -420.40       0.0000  DailyUse
J_CNT39_Stub_CNT39_150  -420.40       0.0000  DailyUse
J_TEE_SNT2_211_240  -420.40       0.0000  DailyUse
J_TEE_SNT2_240_RUN_IN  -420.40       0.0000  DailyUse
 J_TEE_SNT2_240_CNT40_Stub  -422.50       0.0000  DailyUse
J_CNT40_Stub_CNT40_100  -422.50       0.0000  DailyUse
J_TEE_CNT40_100_RUN_IN  -422.50       0.0000  DailyUse
J_TEE_CNT40_100_CNT41_Stub  -422.50       0.0000  DailyUse
J_CNT41_Stub_CNT41_150  -438.80       0.0000  DailyUse
J_CNT41_250_V9_STUB  -438.80       0.0000  DailyUse
V9              -438.80       0.0000  DailyUse
J_TEE_SNT2_240_265  -489.60       0.0000  DailyUse
J_TEE_SNT2_265_RUN_IN  -489.60       0.0000  DailyUse
J_TEE_SNT2_265_CNT42_Stub  -489.60       0.0000  DailyUse
J_CNT42_Stub_CNT42_150  -489.60       0.0000  DailyUse
J_TEE_SNT2_265_300  -536.30       0.0000  DailyUse
J_SNT2_300_RUN_IN  -536.30       0.0000  DailyUse
J_TEE_SNT2_300_CNT43_Stub  -536.30       0.0000  DailyUse
J_CNT43_Stub_CNT43_150  -536.30       0.0000  DailyUse
J_TEE_SNT2_300_365  -552.50       0.0000  DailyUse
J_TEE_SNT2_365_RUN_IN  -552.50       0.0000  DailyUse
J_TEE_SNT2_CNT44_Stub_365  -552.50       0.0000  DailyUse
J_CNT44_Stub_CNT44_365  -552.50       0.0000  DailyUse
J_TEE_SNT2_365_390  -552.50       0.0000  DailyUse
J_TEE_SNT2_390_RUN_IN  -552.50       0.0000  DailyUse
J_TEE_SNT2_CNT45_Stub_390  -552.50       0.0000  DailyUse
J_CNT45_Stub_CNT45_390  -552.50       0.0000  DailyUse
J_TEE_SNT2_390_415  -633.80       0.0000  DailyUse
J_TEE_SNT2_415_RUN_IN  -633.80       0.0000  DailyUse
J_TEE_SNT2_415_CNT46_Stub_415  -633.80       0.0000  DailyUse
J_CNT46_Stub_CNT46_415  -633.80       0.0000  DailyUse
J_TEE_SNT2_415_440  -650.00       0.0000  DailyUse
J_TEE_SNT2_440_RUN_IN  -650.00       0.0000  DailyUse
J_TEE_SNT2_CNT47_Stub  -650.00       0.0000  DailyUse
J_CNT47_Stub_CNT47_440  -650.00       0.0000  DailyUse
J_TEE_SNT2_440_505  -682.50       0.0000  DailyUse
J_TEE_SNT2_505_RUN_IN  -682.50       0.0000  DailyUse
J_TEE_SNT2_505_CNT48_Stub  -682.50       0.0000  DailyUse
J_CNT48_Stub_CNT48_505  -682.50       0.0000  DailyUse
J_TEE_SNT2_505_535  -703.00       0.0000  DailyUse
J_TEE_SNT2_535_RUN_IN  -703.00       0.0000  DailyUse
J_TEE_SNT2_535_CNT49_Stub  -703.00       0.0000  DailyUse
J_CNT49_Stub_CNT48_535  -703.00       0.0000  DailyUse
J_TEE_SNT2_535_580  -747.50       0.0000  DailyUse
J_TEE_SNT2_580_RUN_IN  -747.50       0.0000  DailyUse
J_TEE_SNT2_580_CNT50_Stub  -747.50       0.0000  DailyUse
J_CNT50_Stub_CNT50_580  -747.50       0.0000  DailyUse
J_TEE_SNT2_580_625  -861.30       0.0000  DailyUse
J_TEE_SNT2_625_RUN_IN  -861.30       0.0000  DailyUse
J_TEE_SNT2_625_CNT51_Stub  -861.30       0.0000  DailyUse
J_CNT51_Stub_CNT51_625  -861.30       0.0000  DailyUse
J_TEE_SNT2_625_670  -861.30       0.0000  DailyUse
J_TEE_SNT2_670_RUN_IN  -861.30       0.0000  DailyUse
J_TEE_SNT2_670_CNT52_Stub  -861.30       0.0000  DailyUse
J_CNT52_Stub_CNT52_670  -861.30       0.0000  DailyUse
J_TEE_SNT2_670_715  -861.30       0.0000  DailyUse
J_TEE_SNT2_715_RUN_IN  -861.30       0.0000  DailyUse
J_TEE_SNT2_715_CNT53_Stub  -942.80       0.0000  DailyUse
J_CNT53_Stub_715_CNT53_715  -942.80       0.0000  DailyUse
J_TEE_SNT2_715_840  -946.90       0.0000  DailyUse
J_SNT2_V10_IN_840  -946.90       0.0000  DailyUse
V10             -946.90       0.0000  DailyUse
J_TEE_SNT2_V10_OUT_840_845  -946.90       0.0000  DailyUse
J_TEE_SNT2_845_RUN_IN  -946.90       0.0000  DailyUse
J_TEE_SNT2_845_SNT3_Stub -1017.30       0.0000  DailyUse
J_SNT3_Stub_SNT3_75 -1017.30       0.0000  DailyUse
J_TEE_SNT3_75_RUN_IN -1017.30       0.0000  DailyUse
J_TEE_SNT3_75_CNT54_Stub -1017.30       0.0000  DailyUse
J_CNT54_Stub_75_CNT54_75 -1017.30       0.0000  DailyUse
J_TEE_SNT3_75_130 -1017.30       0.0000  DailyUse
J_TEE_SNT3_130_RUN_IN -1017.30       0.0000  DailyUse
J_TEE_SNT3_130_CNT55_Stub -1017.30       0.0000  DailyUse
J_CNT55_Stub_130_CNT54_55 -1017.30       0.0000  DailyUse
J_TEE_SNT3_130_185 -1036.80       0.0000  DailyUse
J_TEE_SNT3_185_RUN_IN -1036.80       0.0000  DailyUse
J_TEE_SNT3_185_CNT56_Stub -1056.00       0.0000  DailyUse
J_CNT56_Stub_185_CNT56_185 -1056.00       0.0000  DailyUse
J_TEE_SNT3_185_240 -1063.70       0.0000  DailyUse
J_TEE_SNT3_240_RUN_IN -1063.70       0.0000  DailyUse
J_SNT3_240_CNT57_Stub -1070.20       0.0000  DailyUse
J_CNT57_Stub_CNT57_240 -1070.20       0.0000  DailyUse
J_TEE_SNT3_240_295 -1086.40       0.0000  DailyUse
J_TEE_SNT3_295_RUN_IN -1086.40       0.0000  DailyUse
J_TEE_SNT3_295_CNT58_Stub -1090.50       0.0000  DailyUse
J_CNT58_Stub_CNT58_295 -1090.50       0.0000  DailyUse
J_TEE_SNT2_845_850 -1102.90       0.0000  DailyUse
J_TEE_SNT2_855_RUN_IN -1102.90       0.0000  DailyUse
J_TEE_SNT2_855_CNT59_Stub -1099.30       0.0000  DailyUse
J_CNT59_Stub_CNT59_855 -1099.30       0.0000  DailyUse
J_TEE_SNT2_855_875  -946.90       0.0000  DailyUse
J_TEE_SNT2_875_RUN_IN  -946.90       0.0000  DailyUse
J_TEE_SNT2_875_CNT60_Stub  -959.90       0.0000  DailyUse
J_CNT60_Stub_CNT60_875  -959.90       0.0000  DailyUse
J_SNT2_875_1050 -1078.10       0.0000  DailyUse
J_SNT2_V11_IN_1050_Stub -1078.10       0.0000  DailyUse
V11            -1078.10       0.0000  DailyUse
J_SNT2_V11_OUT_1050_1055 -1047.00       0.0000  DailyUse
J_SNT2_1055_RUN_IN -1047.00       0.0000  DailyUse
J_TEE_SNT2_1055_SNT4_Stub -1059.90       0.0000  DailyUse
J_SNT4_Stub_SNT4_20 -1059.90       0.0000  DailyUse
J_TEE_SNT4_20_RUN_IN -1059.90       0.0000  DailyUse
J_TEE_SNT4_20_CNT61_Stub -1059.90       0.0000  DailyUse
J_CNT61_Stub_CNT61_20 -1059.90       0.0000  DailyUse
J_TEE_SNT4_20_70  -970.80       0.0000  DailyUse
J_TEE_IN_SNT4_70_RUN_IN  -970.80       0.0000  DailyUse
J_TEE_SNT4_70_CNT62_Stub  -990.30       0.0000  DailyUse
J_CNT62_Stub_CNT62_15  -990.30       0.0000  DailyUse
J_TEE_SNT4_70_120  -957.80       0.0000  DailyUse
J_TEE_SNT4_120_RUN_IN  -957.80       0.0000  DailyUse
J_TEE_SNT4_120_CNT63_Stub  -970.80       0.0000  DailyUse
J_CNT63_Stub_CNT63_120  -970.80       0.0000  DailyUse
J_TEE_SNT4_120_170  -930.50       0.0000  DailyUse
J_TEE_SNT4_170_RUN_IN  -930.50       0.0000  DailyUse
J_TEE_SNT4_170_CNT64_Stub  -953.10       0.0000  DailyUse
J_CNT64_Stub_CNT64_170  -953.10       0.0000  DailyUse
J_SNT2_1055_1170 -1202.50       0.0000  DailyUse
J_SNT2_V12_IN_Stub_1170 -1202.50       0.0000  DailyUse
V12            -1202.50       0.0000  DailyUse
J_SNT2_V12_OUT_1170_1175 -1202.50       0.0000  DailyUse
J_TEE_SNT2_1175_RUN_IN -1202.50       0.0000  DailyUse
J_TEE_SNT2_1175_SNT5_Stub -1222.00       0.0000  DailyUse
J_SNT5_Stub_SNT5_125 -1222.00       0.0000  DailyUse
J_TEE_SNT5_125_RUN_IN -1222.00       0.0000  DailyUse
J_TEE_SNT5_125_CNT65_Stub -1222.00       0.0000  DailyUse
J_CNT65_Stub_CNT65_125 -1222.00       0.0000  DailyUse
J_TEE_SNT5_125_130 -1230.80       0.0000  DailyUse
J_SNT5_BEND_IN_130 -1230.80       0.0000  DailyUse
J_SNT5_BEND_OUT_130 -1230.80       0.0000  DailyUse
J_SNT5_BEND_OUT_130_145 -1230.80       0.0000  DailyUse
J_TEE_SNT5_145_RUN_IN -1230.80       0.0000  DailyUse
J_TEE_SNT5_145_CNT66_Stub -1174.20       0.0000  DailyUse
J_CNT66_Stub_CNT66_145 -1174.20       0.0000  DailyUse
J_TEE_SNT5_145_165 -1174.20       0.0000  DailyUse
J_TEE_SNT5_165_RUN_IN -1174.20       0.0000  DailyUse
J_TEE_SNT5_165_CNT67_Stub -1174.20       0.0000  DailyUse
J_CNT67_Stub_CNT67_165 -1174.20       0.0000  DailyUse
J_TEE_SNT5_165_190 -1100.80       0.0000  DailyUse
J_TEE_SNT5_190_RUN_IN -1100.80       0.0000  DailyUse
J_TEE_SNT5_190_CNT68_Stub -1100.80       0.0000  DailyUse
J_CNT68_Stub_CNT68_190 -1072.50       0.0000  DailyUse
J_TEE_SNT5_190_260 -1072.50       0.0000  DailyUse
J_TEE_SNT5_260_RUN_IN -1072.50       0.0000  DailyUse
J_TEE_SNT5_260_CNT69_Stub -1072.50       0.0000  DailyUse
J_CNT69_Stub_CNT69_260 -1072.50       0.0000  DailyUse
J_TEE_SNT5__260_310 -1056.30       0.0000  DailyUse
J_TEE_SNT5_310_RUN_IN -1056.30       0.0000  DailyUse
J_TEE_SNT5_310_CNT70_Stub -1056.30       0.0000  DailyUse
J_CNT70_Stub_CNT70_310 -1056.30       0.0000  DailyUse
J_TEE_SNT5_310_325 -1040.00       0.0000  DailyUse
J_TEE_SNT5_325_RUN_IN -1040.00       0.0000  DailyUse
J_TEE_SNT5_325_CNT71_Stub -1040.00       0.0000  DailyUse
J_CNT71_Stub_CNT71_325 -1040.00       0.0000  DailyUse
J_TEE_SNT5_325_400 -1040.00       0.0000  DailyUse
J_TEE_SNT5_400_RUN_IN -1040.00       0.0000  DailyUse
J_TEE_SNT5_400_CNT72_Stub -1040.00       0.0000  DailyUse
J_CNT72_Stub_CNT72_400 -1040.00       0.0000  DailyUse
J_TEE_SNT5_400_415 -1007.50       0.0000  DailyUse
J_TEE_SNT5_415_RUN_IN -1007.50       0.0000  DailyUse
J_TEE_SNT5_415_CNT73_Stub -1007.50       0.0000  DailyUse
J_CNT73_Stub_CNT73_415 -1007.50       0.0000  DailyUse
J_TEE_SNT5_415_430  -988.00       0.0000  DailyUse
J_TEE_SNT5_430_RUN_IN  -988.00       0.0000  DailyUse
J_TEE_SNT5_430_CNT74_Stub  -988.00       0.0000  DailyUse
J_CNT74_Stub_CNT74_430  -988.00       0.0000  DailyUse
J_TEE_SNT5_430_495  -926.30       0.0000  DailyUse
J_TEE_SNT5_495_RUN_IN  -926.30       0.0000  DailyUse
J_TEE_SNT5_495_CNT75_Stub  -926.30       0.0000  DailyUse
J_CNT75_Stub_CNT75_495  -926.30       0.0000  DailyUse
J_TEE_SNT5_495_530  -907.70       0.0000  DailyUse
J_TEE_SNT5_530_RUN_IN  -907.70       0.0000  DailyUse
J_TEE_SNT5_530_CNT76_Stub  -907.70       0.0000  DailyUse
J_CNT76_Stub_CNT76_530  -907.70       0.0000  DailyUse
J_SNT5_530_565  -849.20       0.0000  DailyUse
J_TEE_SNT5_565_RUN_IN  -849.20       0.0000  DailyUse
J_TEE_SNT5_565_CNT77_Stub  -849.20       0.0000  DailyUse
J_CNT77_Stub_CNT77_565  -849.20       0.0000  DailyUse
J_TEE_SNT5_565_620  -812.50       0.0000  DailyUse
J_TEE_SNT5_620_RUN_IN  -812.50       0.0000  DailyUse
J_TEE_SNT5_620_CNT78_Stub  -812.50       0.0000  DailyUse
J_CNT78_Stub_CNT78_620  -812.50       0.0000  DailyUse
J_TEE_SNT5_620_695  -731.30       0.0000  DailyUse
J_TEE_SNT5_695_RUN_IN  -731.30       0.0000  DailyUse
J_TEE_SNT5_695_CNT79_Stub  -731.30       0.0000  DailyUse
J_CNT79_Stub_CNT79_695  -731.30       0.0000  DailyUse
J_TEE_SNT5_695_770  -682.50       0.0000  DailyUse
J_TEE_SNT5_770_RUN_IN  -682.50       0.0000  DailyUse
J_SNT5_770_CNT80_Stub  -682.50       0.0000  DailyUse
J_CNT80_Stub_CNT80_770  -682.50       0.0000  DailyUse
J_TEE_SNT5_770_800  -621.70       0.0000  DailyUse
J_TEE_SNT5_800_RUN_IN  -621.70       0.0000  DailyUse
J_SNT5_770_CNT81_Stub  -621.70       0.0000  DailyUse
J_CNT81_Stub_CNT81_800  -621.70       0.0000  DailyUse
J_TEE_SNT2_1175_1190  -573.00       0.0000  DailyUse
J_TEE_SNT2_1190_RUN_IN  -573.00       0.0000  DailyUse
J_TEE_SNT2_1190_CNT82_Stub  -573.00       0.0000  DailyUse
J_CNT82_Stub_CNT82_1190  -573.00       0.0000  DailyUse
J_TEE_SNT2_1190_1285 -1235.00       0.0000  DailyUse
J_TEE_SNT2_1285_RUN_IN -1235.00       0.0000  DailyUse
J_TEE_SNT2_1285_SNT6_Stub -1235.00       0.0000  DailyUse
J_SNT6_Stub_SNT6_80 -1365.00       0.0000  DailyUse
J_SNT6_80_V13_IN_Stub -1365.00       0.0000  DailyUse
V13            -1365.00       0.0000  DailyUse
J_TEE_SNT2_1285_1365 -1365.00       0.0000  DailyUse
J_TEE_SNT2_1385_RUN_IN -1365.00       0.0000  DailyUse
J_TEE_SNT2_1365_Stub -1369.20       0.0000  DailyUse
J_SNT7_Stub_SNT7_190 -1580.80       0.0000  DailyUse
J_SNT7_190_V14_IN_190_Stub -1580.80       0.0000  DailyUse
V14            -1580.80       0.0000  DailyUse
J_TEE_SNT2_1365_1490 -1397.50       0.0000  DailyUse
J_SNT2_V15_IN_1490_Stub -1397.50       0.0000  DailyUse
V15            -1397.50       0.0000  DailyUse
J_BP1_DIS          0.00      20.0000  DailyUse
J_SNT1_160         0.00      20.0000  DailyUse
J_V1_IN_160        0.00      20.0000  DailyUse
J_V1_OUT_160       0.00      20.0000  DailyUse
J_SNT1_360         0.00      20.0000  DailyUse
J_V2_IN_360        0.00      20.0000  DailyUse
J_V2_OUT_360       0.00      20.0000  DailyUse
J_SNT1_445         0.00      20.0000  DailyUse
J_TEE_SNT1_445     0.00      20.0000  DailyUse
J_CNT1_Stub        0.00      20.0000  DailyUse
J_CNT1             0.00      20.0000  DailyUse
J_TEE_SNT1_525     0.00      20.0000  DailyUse
J_CNT2_Stub        0.00      20.0000  DailyUse
J_CNT2             0.00      20.0000  DailyUse
J_SNT1_525         0.00      20.0000  DailyUse
J_TEE_SNT1_580     0.00      20.0000  DailyUse
J_CNT3_Stub        0.00      20.0000  DailyUse
J_CNT3             0.00      20.0000  DailyUse
J_SNT1_580         0.00      20.0000  DailyUse
J_TEE_SNT1_635     0.00      20.0000  DailyUse
J_TEE_IN_SNT1_635     0.00      20.0000  DailyUse
J_CNT4_Stub        0.00      20.0000  DailyUse
J_CNT4             0.00      20.0000  DailyUse
J_SNT1_635         0.00      20.0000  DailyUse
J_TEE_SNT1_690     0.00      20.0000  DailyUse
J_SNT1_690         0.00      20.0000  DailyUse
J_SNT1_BEND_OUT_690     0.00      20.0000  DailyUse
J_SNT1_BEND_OUT     0.00      20.0000  DailyUse
J_TEE_SNT1_700     0.00      20.0000  DailyUse
J_SNT1_700         0.00      20.0000  DailyUse
J_CNT5_Stub        0.00      20.0000  DailyUse
J_CNT5             0.00      20.0000  DailyUse
J_TEE_SNT1_740     0.00      20.0000  DailyUse
J_CNT6_Stub        0.00      20.0000  DailyUse
J_CNT6             0.00      20.0000  DailyUse
J_SNT1_740         0.00      20.0000  DailyUse
J_TEE_SNT1_795     0.00      20.0000  DailyUse
J_CNT7_Stub        0.00      20.0000  DailyUse
J_CNT7             0.00      20.0000  DailyUse
J_SNT1_795         0.00      20.0000  DailyUse
J_TEE_SNT1_875     0.00      20.0000  DailyUse
J_V2_IN_875        0.00      20.0000  DailyUse
J_V3_IN_875        0.00      20.0000  DailyUse
J_V3_OUT_875       0.00      20.0000  DailyUse
J_SNT1_920         0.00      20.0000  DailyUse
J_TEE_SNT1_920     0.00      20.0000  DailyUse
J_CNT8_Stub        0.00      20.0000  DailyUse
J_CNT8             0.00      20.0000  DailyUse
J_SNT1_1000        0.00      20.0000  DailyUse
J_TEE_SNT1_1000     0.00      20.0000  DailyUse
J_CNT9_Stub        0.00      20.0000  DailyUse
J_CNT9             0.00      20.0000  DailyUse
J_TEE_SNT1_1056     0.00      20.0000  DailyUse
J_CNT10_Stub       0.00      20.0000  DailyUse
J_CNT10            0.00      20.0000  DailyUse
J_SNT1_1056        0.00      20.0000  DailyUse
J_TEE_SNT1_1076     0.00      20.0000  DailyUse
J_CNT11_Stub       0.00      20.0000  DailyUse
J_CNT11            0.00      20.0000  DailyUse
J_SNT1_1076        0.00      20.0000  DailyUse
J_TEE_SNT1_1132     0.00      20.0000  DailyUse
J_CNT12_Stub       0.00      20.0000  DailyUse
J_CNT12            0.00      20.0000  DailyUse
J_SNT1_1132        0.00      20.0000  DailyUse
J_TEE_SNT1_1152     0.00      20.0000  DailyUse
J_CNT13_Stub       0.00      20.0000  DailyUse
J_CNT13            0.00      20.0000  DailyUse
J_SNT1_1152        0.00      20.0000  DailyUse
J_TEE_SNT1_1208     0.00      20.0000  DailyUse
J_CNT14_Stub       0.00      20.0000  DailyUse
J_CNT14            0.00      20.0000  DailyUse
J_SNT1_1208        0.00      20.0000  DailyUse
J_TEE_SNT1_1264     0.00      20.0000  DailyUse
J_CNT15_Stub       0.00      20.0000  DailyUse
J_CNT15            0.00      20.0000  DailyUse
J_SNT1_1264        0.00      20.0000  DailyUse
J_TEE_SNT1_1284     0.00      20.0000  DailyUse
J_CNT16_Stub       0.00      20.0000  DailyUse
J_CNT16            0.00      20.0000  DailyUse
J_SNT1_1284        0.00      20.0000  DailyUse
J_TEE_SNT1_1340     0.00      20.0000  DailyUse
J_CNT17_Stub       0.00      20.0000  DailyUse
J_CNT17            0.00      20.0000  DailyUse
J_SNT1_1340        0.00      20.0000  DailyUse
J_TEE_SNT1_1355     0.00      20.0000  DailyUse
J_CNT18_Stub       0.00      20.0000  DailyUse
J_CNT18            0.00      20.0000  DailyUse
J_SNT1_1355        0.00      20.0000  DailyUse
J_TEE_SNT1_1370     0.00      20.0000  DailyUse
J_CNT19_Stub       0.00      20.0000  DailyUse
J_CNT19            0.00      20.0000  DailyUse
J_SNT1_1385        0.00      20.0000  DailyUse
J_TEE_SNT1_1400     0.00      20.0000  DailyUse
J_CNT20_Stub       0.00      20.0000  DailyUse
J_CNT20            0.00      20.0000  DailyUse
J_SNT1_1400        0.00      20.0000  DailyUse
J_TEE_SNT1_1415     0.00      20.0000  DailyUse
J_CNT21_Stub       0.00      20.0000  DailyUse
J_CNT21            0.00      20.0000  DailyUse
J_SNT1_1415        0.00      20.0000  DailyUse
J_TEE_SNT1_1430     0.00      20.0000  DailyUse
J_CNT22_Stub       0.00      20.0000  DailyUse
J_CNT22            0.00      20.0000  DailyUse
J_TEE_SNT1_1445     0.00      20.0000  DailyUse
J_SNT1_1445        0.00      20.0000  DailyUse
J_CNT23_Stub       0.00      20.0000  DailyUse
J_CNT23            0.00      20.0000  DailyUse
J_TEE_SNT1_1460     0.00      20.0000  DailyUse
J_CNT24_Stub       0.00      20.0000  DailyUse
J_CNT24            0.00      20.0000  DailyUse
J_SNT1_1460        0.00      20.0000  DailyUse
J_TEE_SNT1_1475     0.00      20.0000  DailyUse
J_CNT25_Stub       0.00      20.0000  DailyUse
J_CNT25            0.00      20.0000  DailyUse
J_SNT1_1475        0.00      20.0000  DailyUse
J_TEE_SNT1_1570     0.00      20.0000  DailyUse
J_CNT26_Stub       0.00      20.0000  DailyUse
J_CNT26            0.00      20.0000  DailyUse
J_SNT1_1570        0.00      20.0000  DailyUse
J_TEE_SNT1_1585     0.00      20.0000  DailyUse
J_CNT27_Stub       0.00      20.0000  DailyUse
J_CNT27            0.00      20.0000  DailyUse
J_TEE_SNT1_1680     0.00      20.0000  DailyUse
J_CNT28_Stub       0.00      20.0000  DailyUse
J_CNT28            0.00      20.0000  DailyUse
J_TEE_SNT1_1695     0.00      20.0000  DailyUse
J_CNT29_Stub       0.00      20.0000  DailyUse
J_CNT29            0.00      20.0000  DailyUse
J_SNT1_1695        0.00      20.0000  DailyUse
J_TEE_SNT1_1790     0.00      20.0000  DailyUse
J_CNT30_Stub       0.00      20.0000  DailyUse
J_CNT30            0.00      20.0000  DailyUse
J_SNT1_1790        0.00      20.0000  DailyUse
J_TEE_SNT1_1805     0.00      20.0000  DailyUse
J_CNT31_Stub       0.00      20.0000  DailyUse
J_CNT31            0.00      20.0000  DailyUse
J_SNT1_1805        0.00      20.0000  DailyUse
J_TEE_SNT1_1900     0.00      20.0000  DailyUse
J_CNT32_Stub       0.00      20.0000  DailyUse
J_CNT32            0.00      20.0000  DailyUse
J_SNT1_1900        0.00      20.0000  DailyUse
J_TEE_SNT1_1915     0.00      20.0000  DailyUse
J_CNT33_Stub       0.00      20.0000  DailyUse
J_CNT33            0.00      20.0000  DailyUse
J_SNT1_1915        0.00      20.0000  DailyUse
J_TEE_SNT1_2065     0.00      20.0000  DailyUse
J_CNT34_Stub       0.00      20.0000  DailyUse
J_CNT34            0.00      20.0000  DailyUse
J_SNT1_2065        0.00      20.0000  DailyUse
J_TEE_SNT1_2080     0.00      20.0000  DailyUse
J_CNT35_Stub       0.00      20.0000  DailyUse
J_CNT35            0.00      20.0000  DailyUse
J_SNT1_2080        0.00      20.0000  DailyUse
J_TEE_SNT1_2175     0.00      20.0000  DailyUse
J_CNT36_Stub       0.00      20.0000  DailyUse
J_CNT36            0.00      20.0000  DailyUse
J_SNT1_2175        0.00      20.0000  DailyUse
J_TEE_SNT1_2255     0.00      20.0000  DailyUse
J_V4_IN_2255       0.00      20.0000  DailyUse
J_V4_OUT_2255      0.00      20.0000  DailyUse
J_SNT2_Stub_55     0.00      20.0000  DailyUse
J_TEE_SNT2_55      0.00      20.0000  DailyUse
J_SNT1_55          0.00      20.0000  DailyUse
J_TEE_SNT1_55      0.00      20.0000  DailyUse
J_CNT37_Stub       0.00      20.0000  DailyUse